------- HydroDyn Input File ----------------------------------------------------
NREL                   MW          - offshore baseline floating platform HydroDyn input properties for the OC4 Semi-submersible.
False                  Echo        - Echo the input file data (flag)
---------------------- FLOATING PLATFORM --------------------------------------- [unused with WaveMod=6]
1                      PotMod      - Potential-flow model {0: none=no potential flow, 1: frequency-to-time-domain transforms based on WAMIT output, 2: fluid-impulse theory (FIT)} (switch)
1                      ExctnMod    - Wave-excitation model {0: no wave-excitation calculation, 1: DFT, 2: state-space} (switch) [only used when PotMod=1; STATE-SPACE REQUIRES *.ssexctn INPUT FILE]
0                      ExctnDisp   - Method of computing Wave Excitation {0: use undisplaced position, 1: use displaced position, 2: use low-pass filtered displaced position) [only used when PotMod=1 and ExctnMod>0 and SeaState's WaveMod>0]} (switch)
10                     ExctnCutOff - Cutoff (corner) frequency of the low-pass time-filtered displaced position (Hz) [>0.0] [used only when PotMod=1, ExctnMod>0, and ExctnDisp=2]) [only used when PotMod=1 and ExctnMod>0 and SeaState's WaveMod>0]} (switch)
0                      PtfmYMod    - Model for large platform yaw offset {0: Static reference yaw offset based on PtfmRefY, 1: dynamic reference yaw offset based on low-pass filtering the PRP yaw motion with cutoff frequency PtfmYCutOff} (switch)
0                      PtfmRefY    - Constant (if PtfmYMod=0) or initial (if PtfmYMod=1) platform reference yaw offset (deg)
0.01                   PtfmYCutOff - Cutoff frequency for the low-pass filtering of PRP yaw motion when PtfmYMod=1 [unused when PtfmYMod=0] (Hz)
36                     NExctnHdg   - Number of evenly distributed platform yaw/heading angles over the range of [-180, 180) deg for which the wave excitation shall be computed [only used when PtfmYMod=1] (-)
1                      RdtnMod     - Radiation memory-effect model {0: no memory-effect calculation, 1: convolution, 2: state-space} (switch) [only used when PotMod=1; STATE-SPACE REQUIRES *.ss INPUT FILE]
60                     RdtnTMax    - Analysis time for wave radiation kernel calculations (sec) [only used when PotMod=1 and RdtnMod>0; determines RdtnDOmega=Pi/RdtnTMax in the cosine transform; MAKE SURE THIS IS LONG ENOUGH FOR THE RADIATION IMPULSE RESPONSE FUNCTIONS TO DECAY TO NEAR-ZERO FOR THE GIVEN PLATFORM!]
0.0125                 RdtnDT      - Time step for wave radiation kernel calculations (sec) [only used when PotMod=1 and ExctnMod>0 or RdtnMod>0; DT<=RdtnDT<=0.1 recommended; determines RdtnOmegaMax=Pi/RdtnDT in the cosine transform]
1                      NBody       - Number of WAMIT bodies to be used (-) [>=1; only used when PotMod=1. If NBodyMod=1, the WAMIT data contains a vector of size 6*NBody x 1 and matrices of size 6*NBody x 6*NBody; if NBodyMod>1, there are NBody sets of WAMIT data each with a vector of size 6 x 1 and matrices of size 6 x 6]
1                      NBodyMod    - Body coupling model {1: include coupling terms between each body and NBody in HydroDyn equals NBODY in WAMIT, 2: neglect coupling terms between each body and NBODY=1 with XBODY=0 in WAMIT, 3: Neglect coupling terms between each body and NBODY=1 with XBODY=/0 in WAMIT} (switch) [only used when PotMod=1]
"../5MW_Baseline/HydroData/marin_semi" PotFile     - Root name of potential-flow model data; WAMIT output files containing the linear, nondimensionalized, hydrostatic restoring matrix (.hst), frequency-dependent hydrodynamic added mass matrix and damping matrix (.1), and frequency- and direction-dependent wave excitation force vector per unit wave amplitude (.3) (quoted string) [1 to NBody if NBodyMod>1] [MAKE SURE THE FREQUENCIES INHERENT IN THESE WAMIT FILES SPAN THE PHYSICALLY-SIGNIFICANT RANGE OF FREQUENCIES FOR THE GIVEN PLATFORM; THEY MUST CONTAIN THE ZERO- AND INFINITE-FREQUENCY LIMITS!]
1                      WAMITULEN   - Characteristic body length scale used to redimensionalize WAMIT output (meters) [1 to NBody if NBodyMod>1] [only used when PotMod=1]
0                      PtfmRefxt   - The xt offset of the body reference point(s) from (0,0,0) (meters) [1 to NBody] [only used when PotMod=1]
0                      PtfmRefyt   - The yt offset of the body reference point(s) from (0,0,0) (meters) [1 to NBody] [only used when PotMod=1]
0                      PtfmRefzt   - The zt offset of the body reference point(s) from (0,0,0) (meters) [1 to NBody] [only used when PotMod=1. If NBodyMod=2,PtfmRefzt=0.0]
0                      PtfmRefztRot - The rotation about zt of the body reference frame(s) from xt/yt (degrees) [1 to NBody] [only used when PotMod=1]
13917                  PtfmVol0    - Displaced volume of water when the body is in its undisplaced position (m^3) [1 to NBody] [only used when PotMod=1; USE THE SAME VALUE COMPUTED BY WAMIT AS OUTPUT IN THE .OUT FILE!]
0                      PtfmCOBxt   - The xt offset of the center of buoyancy (COB) from (0,0) (meters) [1 to NBody] [only used when PotMod=1]
0                      PtfmCOByt   - The yt offset of the center of buoyancy (COB) from (0,0) (meters) [1 to NBody] [only used when PotMod=1]
---------------------- 2ND-ORDER FLOATING PLATFORM FORCES ---------------------- [unused with WaveMod=0 or 6, or PotMod=0 or 2]
0                      MnDrift     - Mean-drift 2nd-order forces computed {0: None; [7, 8, 9, 10, 11, or 12]: WAMIT file to use} [Only one of MnDrift, NewmanApp, or DiffQTF can be non-zero. If NBody>1, MnDrift /=8]
0                      NewmanApp   - Mean- and slow-drift 2nd-order forces computed with Newman's approximation {0: None; [7, 8, 9, 10, 11, or 12]: WAMIT file to use} [Only one of MnDrift, NewmanApp, or DiffQTF can be non-zero. If NBody>1, NewmanApp/=8. Used only when WaveDirMod=0]
12                     DiffQTF     - Full difference-frequency 2nd-order forces computed with full QTF {0: None; [10, 11, or 12]: WAMIT file to use} [Only one of MnDrift, NewmanApp, or DiffQTF can be non-zero]
12                     SumQTF      - Full summation -frequency 2nd-order forces computed with full QTF {0: None; [10, 11, or 12]: WAMIT file to use}
---------------------- PLATFORM ADDITIONAL STIFFNESS AND DAMPING  -------------- [unused with PotMod=0 or 2]
             0   AddF0    - Additional preload (N, N-m)  [If NBodyMod=1, one size 6*NBody x 1 vector; if NBodyMod>1, NBody size 6 x 1 vectors] KDAdd 
             0
             0
             0
             0
             0
             0             0             0             0             0             0   AddCLin  - Additional linear stiffness (N/m, N/rad, N-m/m, N-m/rad)  [If NBodyMod=1, one size 6*NBody x 6*NBody matrix; if NBodyMod>1, NBody size 6 x 6 matrices]
             0             0             0             0             0             0
             0             0             0             0             0             0
             0             0             0             0             0             0
             0             0             0             0             0             0
             0             0             0             0             0             0
             0             0             0             0             0             0   AddBLin  - Additional linear damping(N/(m/s), N/(rad/s), N-m/(m/s), N-m/(rad/s))  [If NBodyMod=1, one size 6*NBody x 6*NBody matrix; if NBodyMod>1, NBody size 6 x 6 matrices]
             0             0             0             0             0             0
             0             0             0             0             0             0
             0             0             0             0             0             0
             0             0             0             0             0             0
             0             0             0             0             0             0
             0             0             0             0             0             0   AddBQuad - Additional quadratic drag(N/(m/s)^2, N/(rad/s)^2, N-m(m/s)^2, N-m/(rad/s)^2)  [If NBodyMod=1, one size 6*NBody x 6*NBody matrix; if NBodyMod>1, NBody size 6 x 6 matrices]
             0             0             0             0             0             0
             0             0             0             0             0             0
             0             0             0             0             0             0
             0             0             0             0             0             0
             0             0             0             0             0             0
---------------------- STRIP THEORY OPTIONS --------------------------------------
0                      WaveDisp    - Method of computing Wave Kinematics {0: use undisplaced position, 1: use displaced position) } (switch)
0                      AMMod       - Method of computing distributed added-mass force. (0: Only and always on nodes below SWL at the undisplaced position. 2: Up to the instantaneous free surface) [overwrite to 0 when WaveMod = 0 or 6 or when WaveStMod = 0 in SeaState]
---------------------- AXIAL COEFFICIENTS --------------------------------------
2                      NAxCoef     - Number of axial coefficients (-)
   AxCoefID          AxCd            AxCa            AxCp           AxFDMod        AxVnCOff        AxFDLoFSc   
      (-)             (-)             (-)             (-)             (-)             (-)             (-)      
       1       	       0       	       0       	       1       	       0       	       0       	       1       
       2       	 9.60000000e+00	       0       	       1       	       0       	       0       	       1       
---------------------- MEMBER JOINTS -------------------------------------------
44                     NJoints     - Number of joints (-) [must be exactly 0 or at least 2]
    JointID         Jointxi         Jointyi         Jointzi        JointAxID      JointOvrlp   
      (-)             (m)             (m)             (m)             (-)          (switch)    
       1       	       0       	       0       	      -20      	       1       	       0       
       2       	       0       	       0       	      10       	       1       	       0       
       3       	 1.44337600e+01	      25       	      -14      	       1       	       0       
       4       	 1.44337600e+01	      25       	      12       	       1       	       0       
       5       	-2.88675100e+01	       0       	      -14      	       1       	       0       
       6       	-2.88675100e+01	       0       	      12       	       1       	       0       
       7       	 1.44337600e+01	      -25      	      -14      	       1       	       0       
       8       	 1.44337600e+01	      -25      	      12       	       1       	       0       
       9       	 1.44337500e+01	      25       	      -20      	       2       	       0       
      10       	-2.88675000e+01	       0       	      -20      	       2       	       0       
      11       	 1.44337500e+01	      -25      	      -20      	       2       	       0       
      12       	 9.23760000e+00	      22       	      10       	       1       	       0       
      13       	-2.36713000e+01	       3       	      10       	       1       	       0       
      14       	-2.36713000e+01	      -3       	      10       	       1       	       0       
      15       	 9.23760000e+00	      -22      	      10       	       1       	       0       
      16       	 1.44337500e+01	      -19      	      10       	       1       	       0       
      17       	 1.44337500e+01	      19       	      10       	       1       	       0       
      18       	 4.04145000e+00	      19       	      -17      	       1       	       0       
      19       	-1.84752000e+01	       6       	      -17      	       1       	       0       
      20       	-1.84752000e+01	      -6       	      -17      	       1       	       0       
      21       	 4.04145000e+00	      -19      	      -17      	       1       	       0       
      22       	 1.44337500e+01	      -13      	      -17      	       1       	       0       
      23       	 1.44337500e+01	      13       	      -17      	       1       	       0       
      24       	 1.62500000e+00	 2.81500000e+00	      10       	       1       	       0       
      25       	 1.14337600e+01	 1.98038500e+01	      10       	       1       	       0       
      26       	-3.25000000e+00	       0       	      10       	       1       	       0       
      27       	-2.28700000e+01	       0       	      10       	       1       	       0       
      28       	 1.62500000e+00	-2.81500000e+00	      10       	       1       	       0       
      29       	 1.14337600e+01	-1.98038500e+01	      10       	       1       	       0       
      30       	 1.62500000e+00	 2.81500000e+00	      -17      	       1       	       0       
      31       	 8.43376000e+00	 1.46077000e+01	      -17      	       1       	       0       
      32       	-3.25000000e+00	       0       	      -17      	       1       	       0       
      33       	-1.68700000e+01	       0       	      -17      	       1       	       0       
      34       	 1.62500000e+00	-2.81500000e+00	      -17      	       1       	       0       
      35       	 8.43376000e+00	-1.46077000e+01	      -17      	       1       	       0       
      36       	 1.62500000e+00	 2.81500000e+00	-1.62000000e+01	       1       	       0       
      37       	 1.14337600e+01	 1.98038500e+01	 9.13000000e+00	       1       	       0       
      38       	-3.25000000e+00	       0       	-1.62000000e+01	       1       	       0       
      39       	-2.28700000e+01	       0       	 9.13000000e+00	       1       	       0       
      40       	 1.62500000e+00	-2.81500000e+00	-1.62000000e+01	       1       	       0       
      41       	 1.14337600e+01	-1.98038500e+01	 9.13000000e+00	       1       	       0       
      42       	 1.44337600e+01	      25       	-1.99400000e+01	       1       	       0       
      43       	-2.88675100e+01	       0       	-1.99400000e+01	       1       	       0       
      44       	 1.44337600e+01	      -25      	-1.99400000e+01	       1       	       0       
---------------- CYLINDRICAL MEMBER CROSS-SECTION PROPERTIES -------------------
4                      NPropSetsCyl - Number of cylindrical member property sets (-)
   PropSetID         PropD         PropThck    
      (-)             (m)             (m)      
       1       	 6.50000000e+00	 3.00000000e-02
       2       	      12       	 6.00000000e-02
       3       	      24       	 6.00000000e-02
       4       	 1.60000000e+00	 1.75000000e-02
---------------- RECTANGULAR MEMBER CROSS-SECTION PROPERTIES -------------------
0                      NPropSetsRec - Number of rectangular member property sets (-)
  MPropSetID         PropA           PropB         PropThck    
      (-)             (m)             (m)             (m)      
-------- SIMPLE CYLINDRICAL-MEMBER HYDRODYNAMIC COEFFICIENTS (model 1) ---------
    SimplCd        SimplCdMG        SimplCa        SimplCaMG        SimplCp        SimplCpMG       SimplAxCd      SimplAxCdMG      SimplAxCa      SimplAxCaMG      SimplAxCp      SimplAxCpMG       SimplCb        SimplCbMG   
      (-)             (-)             (-)             (-)             (-)             (-)             (-)             (-)             (-)             (-)             (-)             (-)             (-)             (-)      
       0       	       0       	       0       	       0       	       1       	       1       	       0       	       0       	       0       	       0       	       1       	       1       	       1       	       1       
-------- SIMPLE RECTANGULAR-MEMBER HYDRODYNAMIC COEFFICIENTS (model 1) ---------
SimplCdA               SimplCdAMG  - SimplCdB SimplCdBMG SimplCaA SimplCaAMG SimplCaB SimplCaBMG SimplCp SimplCpMG SimplAxCd SimplAxCdMG SimplAxCa SimplAxCaMG SimplAxCp SimplAxCpMG SimplCb SimplCbMG
(-)                    (-)         - (-) (-) (-) (-) (-) (-) (-) (-) (-) (-) (-) (-) (-) (-) (-) (-)
       0.0         0.0           0.0         0.0           0.0         0.0           0.0         0.0           0.0         0.0         0.0         0.0          0.0         0.0         0.0         0.0          1.0       1.0
------ DEPTH-BASED CYLINDRICAL-MEMBER HYDRODYNAMIC COEFFICIENTS (model 2) -------
0                      NCoefDpthCyl - Number of depth-dependent cylindrical member coefficients (-)
Dpth                   DpthCd      - DpthCdMG DpthCa DpthCaMG DpthCp DpthCpMG DpthAxCd DpthAxCdMG DpthAxCa DpthAxCaMG DpthAxCp DpthAxCpMG DpthCb DpthCbMG
(m)                    (-)         - (-) (-) (-) (-) (-) (-) (-) (-) (-) (-) (-) (-) (-)
------ DEPTH-BASED RECTANGULAR-MEMBER HYDRODYNAMIC COEFFICIENTS (model 2) -------
0                      NCoefDpthRec - Number of depth-dependent rectangular member coefficients (-)
Dpth                   DpthCdA     - DpthCdAMG DpthCdB DpthCdBMG DpthCaA DpthCaAMG DpthCaB DpthCaBMG DpthCp DpthCpMG DpthAxCd DpthAxCdMG DpthAxCa DpthAxCaMG DpthAxCp DpthAxCpMG DpthCb DpthCbMG
(m)                    (-)         - (-) (-) (-) (-) (-) (-) (-) (-) (-) (-) (-) (-) (-) (-) (-) (-) (-)
------ MEMBER-BASED CYLINDRICAL-MEMBER HYDRODYNAMIC COEFFICIENTS (model 3) ------
25                     NCoefMembersCyl - Number of member-based cylindrical member coefficients (-)
   MemberID        MemberCd1       MemberCd2      MemberCdMG1     MemberCdMG2      MemberCa1       MemberCa2      MemberCaMG1     MemberCaMG2      MemberCp1       MemberCp2      MemberCpMG1     MemberCpMG2     MemberAxCd1     MemberAxCd2    MemberAxCdMG1   MemberAxCdMG2    MemberAxCa1     MemberAxCa2    MemberAxCaMG1   MemberAxCaMG2    MemberAxCp1     MemberAxCp2    MemberAxCpMG1   MemberAxCpMG2     MemberCb1       MemberCb2      MemberCbMG1     MemberCbMG2  
      (-)             (-)             (-)             (-)             (-)             (-)             (-)             (-)             (-)             (-)             (-)             (-)             (-)             (-)             (-)             (-)             (-)             (-)             (-)             (-)             (-)             (-)             (-)             (-)             (-)             (-)             (-)             (-)             (-)      
       1       	 5.60000000e-01	 5.60000000e-01	       0       	       0       	       0       	       0       	       0       	       0       	       0       	       0       	       0       	       0       	       0       	       0       	       0       	       0       	       0       	       0       	       0       	       0       	       0       	       0       	       0       	       0       	       1       	       1       	       1       	       1       
       2       	 6.10000000e-01	 6.10000000e-01	       0       	       0       	       0       	       0       	       0       	       0       	       0       	       0       	       0       	       0       	       0       	       0       	       0       	       0       	       0       	       0       	       0       	       0       	       0       	       0       	       0       	       0       	       1       	       1       	       1       	       1       
       3       	 6.10000000e-01	 6.10000000e-01	       0       	       0       	       0       	       0       	       0       	       0       	       0       	       0       	       0       	       0       	       0       	       0       	       0       	       0       	       0       	       0       	       0       	       0       	       0       	       0       	       0       	       0       	       1       	       1       	       1       	       1       
       4       	 6.10000000e-01	 6.10000000e-01	       0       	       0       	       0       	       0       	       0       	       0       	       0       	       0       	       0       	       0       	       0       	       0       	       0       	       0       	       0       	       0       	       0       	       0       	       0       	       0       	       0       	       0       	       1       	       1       	       1       	       1       
       5       	 6.80000000e-01	 6.80000000e-01	       0       	       0       	       0       	       0       	       0       	       0       	       0       	       0       	       0       	       0       	       0       	       0       	       0       	       0       	       0       	       0       	       0       	       0       	       0       	       0       	       0       	       0       	       1       	       1       	       1       	       1       
       6       	 6.80000000e-01	 6.80000000e-01	       0       	       0       	       0       	       0       	       0       	       0       	       0       	       0       	       0       	       0       	       0       	       0       	       0       	       0       	       0       	       0       	       0       	       0       	       0       	       0       	       0       	       0       	       1       	       1       	       1       	       1       
       7       	 6.80000000e-01	 6.80000000e-01	       0       	       0       	       0       	       0       	       0       	       0       	       0       	       0       	       0       	       0       	       0       	       0       	       0       	       0       	       0       	       0       	       0       	       0       	       0       	       0       	       0       	       0       	       1       	       1       	       1       	       1       
      23       	 6.80000000e-01	 6.80000000e-01	       0       	       0       	       0       	       0       	       0       	       0       	       0       	       0       	       0       	       0       	       0       	       0       	       0       	       0       	       0       	       0       	       0       	       0       	       0       	       0       	       0       	       0       	       1       	       1       	       1       	       1       
      24       	 6.80000000e-01	 6.80000000e-01	       0       	       0       	       0       	       0       	       0       	       0       	       0       	       0       	       0       	       0       	       0       	       0       	       0       	       0       	       0       	       0       	       0       	       0       	       0       	       0       	       0       	       0       	       1       	       1       	       1       	       1       
      25       	 6.80000000e-01	 6.80000000e-01	       0       	       0       	       0       	       0       	       0       	       0       	       0       	       0       	       0       	       0       	       0       	       0       	       0       	       0       	       0       	       0       	       0       	       0       	       0       	       0       	       0       	       0       	       1       	       1       	       1       	       1       
       8       	 6.30000000e-01	 6.30000000e-01	       0       	       0       	       0       	       0       	       0       	       0       	       0       	       0       	       0       	       0       	       0       	       0       	       0       	       0       	       0       	       0       	       0       	       0       	       0       	       0       	       0       	       0       	       1       	       1       	       1       	       1       
       9       	 6.30000000e-01	 6.30000000e-01	       0       	       0       	       0       	       0       	       0       	       0       	       0       	       0       	       0       	       0       	       0       	       0       	       0       	       0       	       0       	       0       	       0       	       0       	       0       	       0       	       0       	       0       	       1       	       1       	       1       	       1       
      10       	 6.30000000e-01	 6.30000000e-01	       0       	       0       	       0       	       0       	       0       	       0       	       0       	       0       	       0       	       0       	       0       	       0       	       0       	       0       	       0       	       0       	       0       	       0       	       0       	       0       	       0       	       0       	       1       	       1       	       1       	       1       
      11       	 6.30000000e-01	 6.30000000e-01	       0       	       0       	       0       	       0       	       0       	       0       	       0       	       0       	       0       	       0       	       0       	       0       	       0       	       0       	       0       	       0       	       0       	       0       	       0       	       0       	       0       	       0       	       1       	       1       	       1       	       1       
      12       	 6.30000000e-01	 6.30000000e-01	       0       	       0       	       0       	       0       	       0       	       0       	       0       	       0       	       0       	       0       	       0       	       0       	       0       	       0       	       0       	       0       	       0       	       0       	       0       	       0       	       0       	       0       	       1       	       1       	       1       	       1       
      13       	 6.30000000e-01	 6.30000000e-01	       0       	       0       	       0       	       0       	       0       	       0       	       0       	       0       	       0       	       0       	       0       	       0       	       0       	       0       	       0       	       0       	       0       	       0       	       0       	       0       	       0       	       0       	       1       	       1       	       1       	       1       
      14       	 6.30000000e-01	 6.30000000e-01	       0       	       0       	       0       	       0       	       0       	       0       	       0       	       0       	       0       	       0       	       0       	       0       	       0       	       0       	       0       	       0       	       0       	       0       	       0       	       0       	       0       	       0       	       1       	       1       	       1       	       1       
      15       	 6.30000000e-01	 6.30000000e-01	       0       	       0       	       0       	       0       	       0       	       0       	       0       	       0       	       0       	       0       	       0       	       0       	       0       	       0       	       0       	       0       	       0       	       0       	       0       	       0       	       0       	       0       	       1       	       1       	       1       	       1       
      16       	 6.30000000e-01	 6.30000000e-01	       0       	       0       	       0       	       0       	       0       	       0       	       0       	       0       	       0       	       0       	       0       	       0       	       0       	       0       	       0       	       0       	       0       	       0       	       0       	       0       	       0       	       0       	       1       	       1       	       1       	       1       
      17       	 6.30000000e-01	 6.30000000e-01	       0       	       0       	       0       	       0       	       0       	       0       	       0       	       0       	       0       	       0       	       0       	       0       	       0       	       0       	       0       	       0       	       0       	       0       	       0       	       0       	       0       	       0       	       1       	       1       	       1       	       1       
      18       	 6.30000000e-01	 6.30000000e-01	       0       	       0       	       0       	       0       	       0       	       0       	       0       	       0       	       0       	       0       	       0       	       0       	       0       	       0       	       0       	       0       	       0       	       0       	       0       	       0       	       0       	       0       	       1       	       1       	       1       	       1       
      19       	 6.30000000e-01	 6.30000000e-01	       0       	       0       	       0       	       0       	       0       	       0       	       0       	       0       	       0       	       0       	       0       	       0       	       0       	       0       	       0       	       0       	       0       	       0       	       0       	       0       	       0       	       0       	       1       	       1       	       1       	       1       
      20       	 6.30000000e-01	 6.30000000e-01	       0       	       0       	       0       	       0       	       0       	       0       	       0       	       0       	       0       	       0       	       0       	       0       	       0       	       0       	       0       	       0       	       0       	       0       	       0       	       0       	       0       	       0       	       1       	       1       	       1       	       1       
      21       	 6.30000000e-01	 6.30000000e-01	       0       	       0       	       0       	       0       	       0       	       0       	       0       	       0       	       0       	       0       	       0       	       0       	       0       	       0       	       0       	       0       	       0       	       0       	       0       	       0       	       0       	       0       	       1       	       1       	       1       	       1       